; Filename: ./data/epanet_networks/Braila_V2022_2_2.inp
; WNTR: 0.4.1
; Created: 2022-08-27 10:48:49
[TITLE]
Scenario: Adjusted demands
Date: 28/12/2021 09:18:41

[JUNCTIONS]
;ID                      Elevation       Demand Pattern                 
 275-A                             12               0                            ;
 258-A                             12               0                            ;
 255-A                             12               0                            ;
 J-1640                           9.8               0                            ;
 Jonctiune-J-34                 10.99            0.01 Adj_Resid5                 ;
 Jonctiune-J-32          15.676741812          0.1232 Adj_Resid7                 ;
 Jonctiune-J-31                  9.16           0.009 Adj_Resid1                 ;
 Jonctiune-J-27                     9             0.1 Adj_Resid1                 ;
 Jonctiune-J-26                  10.5             0.1 Adj_Resid1                 ;
 Jonctiune-J-25                     9         0.01945 Adj_Resid1                 ;
 Jonctiune-J-23                 11.05         0.18035 Adj_Resid4                 ;
 Jonctiune-12588                 10.3          0.0119 Adj_Resid3                 ;
 Jonctiune-J-21                    10         0.05585 Adj_Resid5                 ;
 Jonctiune-J-20                  8.71          0.0602 Adj_Resid3                 ;
 Jonctiune-J-19                    11         0.12115 Adj_Resid5                 ;
 Jonctiune-J-16                  9.68          0.1594 Adj_Resid5                 ;
 Jonctiune-J-15                 13.11            0.04 Adj_Resid7                 ;
 PT1                               11            3.56 Adj_PT1                    ;
 PT4                                9           2.811 Adj_PT4                    ;
 PT3                             9.74           3.127 Adj_PT3                    ;
 Jonctiune-J-3                  13.83          0.0695 Adj_Resid7                 ;
 Jonctiune-J-1                      9            0.04 Adj_Resid1                 ;
 Jonctiune-12372                   10          0.0017 Adj_Resid2                 ;
 Jonctiune-4743                 12.04          0.0058 Adj_Resid2                 ;
 Jonctiune-4742                 12.04          0.0058 Adj_Resid2                 ;
 Jonctiune-4731                    12         0.04115 Adj_Resid2                 ;
 Jonctiune-4723                  7.25          0.3427 Adj_Resid1                 ;
 J-RN2                             11          1.8214 Adj_Resid5                 ;
 Jonctiune-4619                    12           0.009 Adj_Resid6                 ;
 Jonctiune-4618                 10.72         0.02155 Adj_Resid3                 ;
 Jonctiune-4615                   9.5           0.004 Adj_Resid2                 ;
 -                                  9          0.0132 Adj_Resid3                 ;
 Jonctiune-4602                  9.75            0.18 Adj_Resid3                 ;
 Jonctiune-4595                     9          0.0153 Adj_Resid1                 ;
 Jonctiune-3972                 11.38          0.0121 Adj_Resid6                 ;
 Jonctiune-3967                    11           0.047 Adj_Resid2                 ;
 Jonctiune-3961                    12            0.12 Adj_Resid4                 ;
 Jonctiune-3956                    11         0.01465 Adj_Resid5                 ;
 Jonctiune-3920                  6.72         0.02905 Adj_Resid1                 ;
 Jonctiune-3917                  6.71         0.00805 Adj_Resid1                 ;
 Jonctiune-3913                   9.8           0.136 Adj_Resid2                 ;
 Jonctiune-3566                 11.56          0.0647 Adj_Resid4                 ;
 Jonctiune-3510                 11.21          0.0129 Adj_Resid2                 ;
 Jonctiune-3471                 10.78         0.08825 Adj_Resid2                 ;
 Jonctiune-3470                   8.5          0.0204 Adj_Resid1                 ;
 Jonctiune-3467                  5.73         0.01255 Adj_Resid1                 ;
 Jonctiune-3466                  5.75          0.2603 Adj_Resid1                 ;
 Sensor3                            9          0.0668 Adj_Resid1                 ;
 Jonctiune-3464                   9.2         0.15115 Adj_Resid1                 ;
 Jonctiune-3448                  6.86          0.0149 Adj_Resid1                 ;
 Jonctiune-3446                   5.5          0.0433 Adj_Resid1                 ;
 Jonctiune-3425                   9.1          0.0334 Adj_Resid1                 ;
 Jonctiune-3422                   6.7         0.01945 Adj_Resid1                 ;
 Jonctiune-3386                  8.62            0.03 Adj_Resid1                 ;
 Jonctiune-3075                  9.25           0.074 Adj_Resid2                 ;
 Jonctiune-3074                    10          0.0711 Adj_Resid3                 ;
 Jonctiune-3068                    12         0.00145 Adj_Resid5                 ;
 Jonctiune-3067                     9          0.2042 Adj_Resid3                 ;
 Jonctiune-2968                 12.19            0.05 Adj_Resid6                 ;
 J-Apollo                       11.84             0.2 Adj_Resid6                 ;
 Jonctiune-2879                 10.96         0.05225 Adj_Resid1                 ;
 Jonctiune-2777                 10.62          0.0092 Adj_Resid4                 ;
 Jonctiune-2776                 11.18          0.0052 Adj_Resid4                 ;
 Jonctiune-2774                  9.03          0.3472 Adj_Resid3                 ;
 Jonctiune-2756                  5.19         0.10075 Adj_Resid1                 ;
 Jonctiune-2755                  8.42          0.0125 Adj_Resid1                 ;
 Jonctiune-2753                  7.21          0.1307 Adj_Resid1                 ;
 Jonctiune-2752                  8.52           0.046 Adj_Resid3                 ;
 Jonctiune-2751                  7.87         0.04895 Adj_Resid1                 ;
 Jonctiune-2750                  7.27         0.02905 Adj_Resid1                 ;
 J-RN1                           7.36           0.038 Adj_Resid1                 ;
 Jonctiune-2744                 12.69               0                            ;
 Jonctiune-2743                  9.96             0.1 Adj_Resid5                 ;
 PT2                            11.86           3.305 Adj_PT2                    ;
 Jonctiune-2739                 10.72         0.00945 Adj_Resid5                 ;
 Jonctiune-2738                  13.4          0.0041 Adj_Resid7                 ;
 Jonctiune-2737                 13.08               0                            ;
 Jonctiune-2736                 12.48          0.0655 Adj_Resid7                 ;
 Jonctiune-2735                 12.48               0                            ;
 Jonctiune-2734                 13.62          0.0189 Adj_Resid7                 ;
 Jonctiune-2730                  5.88               0                            ;
 Jonctiune-2729                  5.35          0.0334 Adj_Resid1                 ;
 Jonctiune-2208                  6.79         0.10375 Adj_Resid1                 ;
 Jonctiune-2207                  9.58         0.10455 Adj_Resid5                 ;
 Jonctiune-2206                 13.74          0.3198 Adj_Resid7                 ;
 Jonctiune-2205                 13.42               0                            ;
 Jonctiune-2204                 11.39          0.0776 Adj_Resid5                 ;
 Jonctiune-2203                 11.07          0.3455 Adj_Resid5                 ;
 Jonctiune-2202                 10.27         0.10505 Adj_Resid7                 ;
 Jonctiune-2201                 10.95               0                            ;
 Jonctiune-2200                  9.32          0.8989 Adj_Resid5                 ;
 Sensor4                         7.58         0.15805 Adj_Resid3                 ;
 Jonctiune-2197                  6.26         0.20055 Adj_Resid1                 ;
 Jonctiune-2196                  11.4          0.3349 Adj_Resid2                 ;
 Jonctiune-2195                 10.77           0.552 Adj_Resid4                 ;
 Jonctiune-2194                 10.77          0.2312 Adj_Resid4                 ;
 Jonctiune-2193                 11.39         0.24295 Adj_Resid2                 ;
 Jonctiune-2192                 11.94         0.31435 Adj_Resid4                 ;
 Jonctiune-2191                 11.58          0.0144 Adj_Resid2                 ;
 Jonctiune-2190                 11.84           0.027 Adj_Resid2                 ;
 Jonctiune-2189                 11.84          0.0298 Adj_Resid2                 ;
 Jonctiune-2188                 11.84          0.0392 Adj_Resid2                 ;
 Jonctiune-2187                 11.84         0.10305 Adj_Resid4                 ;
 Jonctiune-2186                 11.67          0.0368 Adj_Resid6                 ;
 Jonctiune-2185                 11.33            0.05 Adj_Resid2                 ;
 Jonctiune-2184                 11.18          0.0558 Adj_Resid6                 ;
 Jonctiune-2182                  10.5               0                            ;
 Jonctiune-2181                 10.74         0.06675 Adj_Resid2                 ;
 Jonctiune-2180                 10.48          0.1199 Adj_Resid2                 ;
 Sensor2                        10.92          0.0081 Adj_Resid2                 ;
 Jonctiune-2177                 11.37         0.27845 Adj_Resid6                 ;
 Jonctiune-2176                 10.99          0.0874 Adj_Resid4                 ;
 Jonctiune-1998                 11.29         0.08095 Adj_Resid6                 ;
 Jonctiune-1997                 11.29         0.01255 Adj_Resid6                 ;
 Jonctiune-1996                 11.29          0.0258 Adj_Resid6                 ;
 Jonctiune-1995                 11.55          0.0013 Adj_Resid6                 ;
 Jonctiune-1877                 10.81         0.10035 Adj_Resid6                 ;
 Sensor1                        12.05          0.0185 Adj_Resid6                 ;
 Jonctiune-1875                 12.45           0.176 Adj_Resid6                 ;
 Jonctiune-1874                 10.68           0.183 Adj_Resid6                 ;
 Jonctiune-1872                  9.25         0.02815 Adj_Resid1                 ;
 Jonctiune-1646                 13.87               0                            ;
 Jonctiune-1642                 13.98           0.222 Adj_Resid7                 ;
 Jonctiune-1641                 10.52          0.0554 Adj_Resid5                 ;
 Jonctiune-1638                  9.21          0.1033 Adj_Resid3                 ;
 Jonctiune-1637                  9.57               0                            ;
 Jonctiune-1636                  8.96          0.0554 Adj_Resid3                 ;
 Jonctiune-1635                 10.99          0.0657 Adj_Resid5                 ;
 Jonctiune-1634                 12.91               0                            ;
 Jonctiune-1632                 11.52               0                            ;
 Jonctiune-1628                 11.89               0                            ;
 Jonctiune-1616                  11.2               0                            ;
 Jonctiune-1610                 10.86          0.0068 Adj_Resid4                 ;
 Jonctiune-1421                  12.3         0.04115 Adj_Resid4                 ;
 Jonctiune-1419                 12.27         0.00095 Adj_Resid6                 ;
 Jonctiune-1415                 11.66          0.2623 Adj_Resid4                 ;
 Jonctiune-1414                 12.46         0.02145 Adj_Resid6                 ;
 Jonctiune-1413                 10.23         0.03985 Adj_Resid2                 ;
 Jonctiune-1407                 12.54             0.1 Adj_Resid2                 ;
 Jonctiune-1406                 11.67            0.07 Adj_Resid2                 ;
 Jonctiune-1405                 12.04          0.0058 Adj_Resid2                 ;
 Jonctiune-1226                     9          0.1544 Adj_Resid3                 ;
 Jonctiune-1225                  9.01          0.0674 Adj_Resid3                 ;
 Jonctiune-267                   9.39          0.0669 Adj_Resid3                 ;

[RESERVOIRS]
;ID                                   Head                  Pattern
 RaduNegru1                         1                 RN1_1011   ;
 Apollo                             1               Apollo_mod   ;
 RaduNegru2                         1                RN2_modif   ;

[TANKS]
;ID                              Elevation           Init Level            Min Level            Max Level             Diameter           Min Volume Volume Curve         Overflow            

[PIPES]
;ID                   Node1                Node2                              Length             Diameter            Roughness           Minor Loss               Status
 Conducta-1298        Jonctiune-J-16       Jonctiune-2207          75.779175588             200            0.15               0                 Open   ;
 Conducta-1293        Jonctiune-2203       Jonctiune-2204          75.575467459             100             0.8               0                 Open   ;
 Conducta-1278        Jonctiune-2187       Jonctiune-2192          75.551735005             100             0.8               0                 Open   ;
 Conducta-1281        Jonctiune-2195       Jonctiune-2777          75.287910981             100            0.15               0                 Open   ;
 Conducta-2210        Jonctiune-3075       Jonctiune-4615          74.772483973              50           0.007               0                 Open   ;
 Conducta-2044        Jonctiune-1405       Jonctiune-1406          74.643029876             110           0.007               0                 Open   ;
 Conducta-2953        Jonctiune-3913       Jonctiune-3471                    77             100             0.3               0                 Open   ;
 Conducta-3578        Jonctiune-4723       Jonctiune-2756                    78             110           0.007               0                 Open   ;
 Conducta-1931        Jonctiune-2737       Jonctiune-J-15          73.630419219             200             0.3               0                 Open   ;
 Conducta-702         Jonctiune-2186       Jonctiune-2177          73.174283855             150             0.8               0                 Open   ;
 Conducta-1071        Jonctiune-1996       Jonctiune-1997          73.702763696             100             0.8               0                 Open   ;
 Conducta-1940        Jonctiune-4723       Jonctiune-3466          72.468025576             110           0.007               0                 Open   ;
 Conducta-2960        Jonctiune-2197       Jonctiune-3448          72.088816237             100            0.15               0                 Open   ;
 Conducta-3534        Jonctiune-4742       Jonctiune-4743          71.984428414              63           0.007               0                 Open   ;
 Conducta-2611        Jonctiune-3467       Jonctiune-2750          71.960210324             500            0.15               0                 Open   ;
 Conducta-1276        Jonctiune-2189       Jonctiune-2190          71.743082125             100             0.3               0                 Open   ;
 Conducta-1300        Jonctiune-2207       Jonctiune-2739          71.033513224             100             0.3               0                 Open   ;
 Conducta-2720        Jonctiune-3471       Jonctiune-2182          70.097002694             110           0.007               0                 Open   ;
 Conducta-1289        Jonctiune-2202       Jonctiune-3956          69.758419409             100             0.3               0                 Open   ;
 Conducta-951         Jonctiune-1616       Jonctiune-2743          111.10661509             200             0.8               0                 Open   ;
 Conducta-2209        Jonctiune-3075       -                       68.855081513             100            0.15               0                 Open   ;
 Conducta-1942        Jonctiune-2750       Jonctiune-2755                  83.9             250            0.15               0                 Open   ;
 Conducta-11958       Jonctiune-12372      Jonctiune-2185          56.915190872             100             0.3               0                 Open   ;
 Conducta-2976        258-A                Jonctiune-1632          26.248173856             250             0.3               0                 Open   ;
 Conducta-1935        Jonctiune-2744       Jonctiune-2735          21.584532485             200             0.8               0                 Open   ;
 Conducta-1927        Jonctiune-J-3        Jonctiune-2734          20.165076242             200             0.3               0                 Open   ;
 Conducta-2954        255-A                Jonctiune-2752          8.4726036023             100            0.15               0                 Open   ;
 Conducta-2977        Jonctiune-1421       Jonctiune-3961          7.8812174057             110           0.007               0                 Open   ;
 Conducta-701         Jonctiune-2186       Jonctiune-1414          8.1649597013             100             0.8               0                 Open   ;
 Conducta-1073        Jonctiune-1998       Jonctiune-1996          6.0760352154             100            0.15               0                 Open   ;
 Conducta-1440        Jonctiune-J-31       Jonctiune-1872          4.2609892598             125            0.15               0                 Open   ;
 Conducta-2579        Jonctiune-3425       Jonctiune-J-1           4.6404318165             300            0.15               0                 Open   ;
 Conducta-2560        J-RN1                Jonctiune-3386          1.8337042281            1000            0.15               0                 Open   ;
 P-10(1)              Jonctiune-1641       J-1640                           3.8             150             0.3               0                 Open   ;
 Conducta-1279(2)     Jonctiune-2776       Jonctiune-2194                    85             100             0.8               0                 Open   ;
 Conducta-1934(2)     Jonctiune-J-15       Jonctiune-2744                  75.8             200             0.8               0                 Open   ;
 Conducta-2904(1)(1)(2) Jonctiune-1419       Jonctiune-3961          249.99720121             200           0.007               0                 Open   ;
 Conducta-2904(1)(1)(1) J-Apollo             Jonctiune-1419                 124.6             200           0.007               0                 Open   ;
 Conducta-2956(1)(2)  Jonctiune-2752       Jonctiune-1226          80.390863137             150             0.8               0                 Open   ;
 Conducta-2956(1)(1)  Jonctiune-2774       Jonctiune-2752                    88             150             0.8               0                 Open   ;
 Conducta-2904(1)(2)  Jonctiune-3961       Jonctiune-3566          71.246422688             200           0.007               0                 Open   ;
 Conducta-2962(1)     Jonctiune-3067       Jonctiune-3917                 163.9             100             0.3               0                 Open   ;
 Conducta-1928(2)     Jonctiune-J-32       Jonctiune-2206          79.725139941             200             0.3               0                 Open   ;
 Conducta-1928(1)     Jonctiune-2734       Jonctiune-J-32          71.512464843             200             0.3               0                 Open   ;
 Conducta-1272(2)     Jonctiune-2184       Jonctiune-1419          8.2008366267             110           0.007               0                 Open   ;
 Conducta-2975(2)(2)  Jonctiune-1635       258-A                   112.05027184             250            0.15               0                 Open   ;
 Conducta-2975(2)(1)  Jonctiune-1641       Jonctiune-1635          167.69730238             250            0.15               0                 Open   ;
 Conducta-2982(1)(2)  Jonctiune-1874       Jonctiune-1610          389.24085314             110           0.007               0                 Open   ;
 Conducta-2982(1)(1)  Jonctiune-3972       Jonctiune-1874          54.894512464             110           0.007               0                 Open   ;
 Conducta-2063(2)     Jonctiune-3425       Jonctiune-J-27           24.05430013             300             0.3               0                 Open   ;
 Conducta-2063(1)     Jonctiune-2729       Jonctiune-3425          421.59224591             300             0.3               0                 Open   ;
 Conducta-2196(2)     Sensor4              Jonctiune-3067                  73.7             150             0.8               0                 Open   ;
 Conducta-1916(2)     Jonctiune-3466       Jonctiune-1226                 366.2             100             0.3               0                 Open   ;
 Conducta-11959(2)    Jonctiune-3510       Jonctiune-12372         356.55316812             100             0.3               0                 Open   ;
 Conducta-11959(1)    Jonctiune-1996       Jonctiune-3510          437.61552435             150             0.3               0                 Open   ;
 Conducta-2946(2)     Sensor3              Jonctiune-3913          193.09611816             110           0.007               0                 Open   ;
 Conducta-695(1)(1)   Jonctiune-1406       Jonctiune-1407                  93.2             110           0.007               0                 Open   ;
 Conducta-1977(1)(1)  Jonctiune-J-20       Jonctiune-4602          139.60913944             250            0.15               0                 Open   ;
 Conducta-2564(2)     Jonctiune-J-21       J-RN2                   180.76051637             100             0.3               0                 Open   ;
 Conducta-2564(1)     Jonctiune-3067       Jonctiune-J-21          183.17199643             100             0.3               0                 Open   ;
 Conducta-3347(2)     Jonctiune-1638       PT4                     41.536913662             200            0.15               0                 Open   ;
 Conducta-3348(1)     Jonctiune-1638       Jonctiune-1637          109.91993459             300            0.15               0                 Open   ;
 Conducta-9419(2)     Jonctiune-4602       PT3                     30.977513282             200            0.15               0                 Open   ;
 Conducta-2945(1)     Jonctiune-1872       Sensor3                 75.353336449             110           0.007               0                 Open   ;
 Conducta-2613(2)     Jonctiune-1872       Jonctiune-4595          77.555264826             100             0.3               0                 Open   ;
 Conducta-957(2)      Jonctiune-1872       Jonctiune-3075          184.64612977             100             0.3               0                 Open   ;
 Conducta-3391(2)     Jonctiune-2750       Jonctiune-1638          433.12805563             300            0.15               0                 Open   ;
 Conducta-826(2)      Jonctiune-1632       Jonctiune-1634          136.57959972             250            0.15               0                 Open   ;
 Conducta-2983(1)     Jonctiune-1875       Jonctiune-3972          208.04214884             110           0.007               0                 Open   ;
 Conducta-953(2)      Sensor1              Jonctiune-2186                  79.2             150             0.8               0                 Open   ;
 Conducta-1268(2)     Sensor2              Jonctiune-2180                 189.1             100             0.3               0                 Open   ;
 Conducta-700(1)      Jonctiune-1415       Sensor2                         72.6             110           0.007               0                 Open   ;
 Conducta-2987(1)     275-A                Sensor2                        197.2             100             0.3               0                 Open   ;
 Conducta-2979(1)     Sensor2              Jonctiune-3967                  20.8             110           0.007               0                 Open   ;
 Conducta-2978(2)     Jonctiune-3566       Jonctiune-2776          9.1827453863             200             0.8               0                 Open   ;
 Conducta-1287(1)     Jonctiune-2200       Jonctiune-2201          249.30275336             100             0.8               0                 Open   ;
 Conducta-1292(2)     Jonctiune-2201       Jonctiune-2203           76.21250695             100             0.8               0                 Open   ;
 Conducta-1288(2)     Jonctiune-2206       Jonctiune-2201          450.35051096             100             0.8               0                 Open   ;
 Conducta-2959(2)     Jonctiune-3448       Jonctiune-2730          4.0649507951             100            0.15               0                 Open   ;
 Conducta-2961(2)     Jonctiune-3448       Jonctiune-3917           5.823462003              40           0.007               0                 Open   ;
 Conducta-2189(2)(1)  J-RN1                Jonctiune-3467           298.9127771             300            0.15               0                 Open   ;
 Conducta-1441(2)     Jonctiune-J-31       Jonctiune-J-20          308.40299773             250            0.15               0                 Open   ;
 Conducta-1944(2)     Jonctiune-2755       Jonctiune-J-31          71.426338498             250            0.15               0                 Open   ;
 Conducta-1943(2)     Jonctiune-2755       Jonctiune-3470          103.77569742             110           0.007               0                 Open   ;
 Conducta-3576(1)     Jonctiune-2755       Jonctiune-2774          356.47726087             110           0.007               0                 Open   ;
 Conducta-2594(2)     Jonctiune-3386       Jonctiune-J-26          222.68987727              50           0.007               0                 Open   ;
 Conducta-958(1)(2)   Jonctiune-267        Jonctiune-1610                 187.6             110           0.007               0                 Open   ;
 Conducta-1933(1)     Jonctiune-2203       Jonctiune-1646          390.07778484             100             0.3               0                 Open   ;
 Conducta-833(2)      Jonctiune-1646       Jonctiune-2738           14.50164374             100            0.15               0                 Open   ;
 Conducta-831(2)      Jonctiune-2744       Jonctiune-1642          9.2167973225             100            0.15               0                 Open   ;
 Conducta-818(2)      Jonctiune-1616       Jonctiune-2176                 144.2             200             0.8               0                 Open   ;
 Conducta-830(2)      Jonctiune-2207       Jonctiune-1641          76.117410979             200             0.8               0                 Open   ;
 Conducta-828(2)      Jonctiune-1637       Jonctiune-1636          59.747833517             250            0.15               0                 Open   ;
 Conducta-11778(1)    Jonctiune-3068       Jonctiune-J-34          75.098013746             100             0.8               0                 Open   ;
 Conducta-824(2)      Jonctiune-1632       PT1                               51             150            0.15               0                 Open   ;
 Conducta-823(2)      Jonctiune-1628       PT2                     26.843355851             200            0.15               0                 Open   ;
 Conducta-822(2)      Jonctiune-2735       Jonctiune-1628          142.56778762             250            0.15               0                 Open   ;
 Conducta-956(1)      Jonctiune-1877       Jonctiune-1616                 247.4             250             0.3               0                 Open   ;
 Conducta-949(2)      Jonctiune-267        Jonctiune-1413          78.448932413             100             0.3               0                 Open   ;
 Conducta-950(2)      Jonctiune-1610       Jonctiune-1415          75.185748572             110           0.007               0                 Open   ;
 Conducta-948(2)      Jonctiune-3913       Jonctiune-267           168.61076729             110           0.007               0                 Open   ;
 Conducta-699(2)(1)   Jonctiune-1414       Jonctiune-1415          611.80938057             110           0.007               0                 Open   ;
 Conducta-704(1)      Jonctiune-1413       Jonctiune-1415          184.02646309             110           0.007               0                 Open   ;
 Conducta-696(2)      Jonctiune-2192       Jonctiune-1406                 186.5              76            0.15               0                 Open   ;
 Conducta-1277(2)     Jonctiune-1406       Jonctiune-2191                  80.1              63           0.007               0                 Open   ;
 Conducta-2724(2)     Jonctiune-1405       Jonctiune-2189                  52.1             100            0.15               0                 Open   ;
 Conducta-3610(2)     Jonctiune-4742       Jonctiune-1405                  11.3             110           0.007               0                 Open   ;
 Conducta-2725(1)     Jonctiune-1405       Jonctiune-2188                  43.9             100            0.15               0                 Open   ;
 Conducta-3609(1)     Jonctiune-2196       Jonctiune-4742                  70.1             110           0.007               0                 Open   ;
 Conducta-580(1)      Jonctiune-1226       Jonctiune-1225                 170.8             110           0.007               0                 Open   ;
 Conducta-1932(2)     Sensor1              Jonctiune-4619                  69.3             150             0.8               0                 Open   ;
 Conducta-952(1)      Jonctiune-1875       Sensor1                         10.8             200             0.8               0                 Open   ;