[TITLE]
Scenario: Base 
Date: 29-Mar-21 2:20:41 PM 

[JUNCTIONS]
;ID              	Elev        	Demand      	Pattern         
 Jonctiune-267   	9.39        	0.0381      	SCADA           	;
 Jonctiune-1224  	8.6         	0           	                	;
 Jonctiune-1225  	9.01        	0.0674      	SCADA           	;
 Jonctiune-1226  	9           	0.0423      	SCADA           	;
 Jonctiune-1404  	11.92       	0.0058      	SCADA           	;
 Jonctiune-1405  	12.04       	0.0058      	SCADA           	;
 Jonctiune-1406  	11.67       	0.05        	SCADA           	;
 Jonctiune-1407  	12.54       	0.1         	SCADA           	;
 Jonctiune-1413  	10.23       	0.03985     	SCADA           	;
 Jonctiune-1414  	12.46       	0.02145     	SCADA           	;
 Jonctiune-1415  	11.66       	0.2623      	SCADA           	;
 Jonctiune-1419  	12.27       	0.00095     	SCADA           	;
 Jonctiune-1421  	12.3        	0.04115     	SCADA           	;
 Jonctiune-1606  	9.8         	0.06295     	SCADA           	;
 Jonctiune-1610  	10.86       	0.0068      	SCADA           	;
 Jonctiune-1616  	11.2        	0           	                	;
 Jonctiune-1628  	11.89       	0           	                	;
 Jonctiune-1632  	11.52       	0           	                	;
 Jonctiune-1634  	12.91       	0           	                	;
 Jonctiune-1635  	10.99       	0.0657      	SCADA           	;
 Jonctiune-1636  	8.96        	0.0554      	SCADA           	;
 Jonctiune-1637  	9.57        	0           	                	;
 Jonctiune-1638  	9.21        	0.1033      	SCADA           	;
 Jonctiune-1641  	10.52       	0.0554      	SCADA           	;
 Jonctiune-1642  	13.98       	0.222       	SCADA           	;
 Jonctiune-1646  	13.87       	0           	                	;
 Jonctiune-1872  	9.25        	0.02815     	SCADA           	;
 Jonctiune-1873  	8.66        	0.0288      	SCADA           	;
 Jonctiune-1874  	10.68       	0.183       	SCADA           	;
 Jonctiune-1875  	12.45       	0.176       	SCADA           	;
 SenzorComunarzi-NatVech	12.05       	0.0185      	SCADA           	;
 Jonctiune-1877  	10.81       	0.10035     	SCADA           	;
 Jonctiune-1995  	11.55       	0.0013      	SCADA           	;
 Jonctiune-1996  	11.29       	0.0258      	SCADA           	;
 Jonctiune-1997  	11.29       	0.01255     	SCADA           	;
 Jonctiune-1998  	11.29       	0.08095     	SCADA           	;
 Jonctiune-2176  	10.99       	0.0874      	SCADA           	;
 Jonctiune-2177  	11.37       	0.27845     	SCADA           	;
 SenzorCernauti-Sebesului	10.92       	0.0081      	SCADA           	;
 Jonctiune-2179  	10.48       	0.0531      	SCADA           	;
 Jonctiune-2180  	10.48       	0.06675     	SCADA           	;
 Jonctiune-2181  	10.74       	0.06675     	SCADA           	;
 Jonctiune-2182  	10.5        	0           	                	;
 Jonctiune-2184  	11.18       	0.0558      	SCADA           	;
 Jonctiune-2185  	11.33       	0.05        	SCADA           	;
 Jonctiune-2186  	11.67       	0.0368      	SCADA           	;
 Jonctiune-2187  	11.84       	0.10305     	SCADA           	;
 Jonctiune-2188  	11.84       	0.0392      	SCADA           	;
 Jonctiune-2189  	11.84       	0.0298      	SCADA           	;
 Jonctiune-2190  	11.84       	0.027       	SCADA           	;
 Jonctiune-2191  	11.58       	0.0144      	SCADA           	;
 Jonctiune-2192  	11.94       	0.31435     	SCADA           	;
 Jonctiune-2193  	11.39       	0.24295     	SCADA           	;
 Jonctiune-2194  	10.77       	0.2312      	SCADA           	;
 Jonctiune-2195  	10.77       	0.552       	SCADA           	;
 Jonctiune-2196  	11.4        	0.3291      	SCADA           	;
 Jonctiune-2197  	6.26        	0.20055     	SCADA           	;
 SenzorChisinau-Titulescu	7.58        	0.15805     	SCADA           	;
 Jonctiune-2199  	9.32        	0.0652      	SCADA           	;
 Jonctiune-2200  	9.32        	0.2469      	SCADA           	;
 Jonctiune-2201  	10.95       	0           	                	;
 Jonctiune-2202  	10.27       	0.10505     	SCADA           	;
 Jonctiune-2203  	11.07       	0.3455      	SCADA           	;
 Jonctiune-2204  	11.39       	0.0776      	SCADA           	;
 Jonctiune-2205  	13.42       	0           	                	;
 Jonctiune-2206  	13.74       	0.3198      	SCADA           	;
 Jonctiune-2207  	9.58        	0.10455     	SCADA           	;
 Jonctiune-2208  	6.79        	0.10375     	SCADA           	;
 Jonctiune-2729  	5.35        	0.0334      	SCADA           	;
 Jonctiune-2730  	5.88        	0           	                	;
 Jonctiune-2734  	13.62       	0.0189      	SCADA           	;
 Jonctiune-2735  	12.48       	0           	                	;
 Jonctiune-2736  	12.48       	0.0655      	SCADA           	;
 Jonctiune-2737  	13.08       	0           	                	;
 Jonctiune-2738  	13.4        	0.0041      	SCADA           	;
 Jonctiune-2739  	10.72       	0.00945     	SCADA           	;
 PT2             	11.86       	3.305       	SCADA           	;
 Jonctiune-2743  	9.96        	0.1         	SCADA           	;
 Jonctiune-2744  	12.69       	0           	                	;
 Jonctiune-2749  	7.36        	0.038       	SCADA           	;
 Jonctiune-2750  	7.27        	0.02905     	SCADA           	;
 Jonctiune-2751  	7.87        	0.04895     	SCADA           	;
 Jonctiune-2752  	8.52        	0.046       	SCADA           	;
 Jonctiune-2753  	7.21        	0.0817      	SCADA           	;
 Jonctiune-2755  	8.42        	0.0125      	SCADA           	;
 Jonctiune-2756  	5.19        	0.10075     	SCADA           	;
 Jonctiune-2773  	8.35        	0.20475     	SCADA           	;
 Jonctiune-2774  	9.03        	0.11185     	SCADA           	;
 Jonctiune-2776  	11.18       	0.0052      	SCADA           	;
 Jonctiune-2777  	10.62       	0.0092      	SCADA           	;
 Jonctiune-2879  	10.96       	0.05225     	SCADA           	;
 Jonctiune-2911  	7.23        	0.04895     	SCADA           	;
 Jonctiune-2967  	11.84       	0.2         	SCADA           	;
 Jonctiune-2968  	12.19       	0.05        	SCADA           	;
 Jonctiune-3067  	9           	0.01125     	SCADA           	;
 Jonctiune-3068  	12          	0.00145     	SCADA           	;
 Jonctiune-3074  	10          	0.0711      	SCADA           	;
 Jonctiune-3075  	9.25        	0.074       	SCADA           	;
 Jonctiune-3386  	8.62        	0.03        	SCADA           	;
 Jonctiune-3422  	6.7         	0.01945     	SCADA           	;
 Jonctiune-3425  	9.1         	0.0334      	SCADA           	;
 Jonctiune-3446  	5.5         	0.00935     	SCADA           	;
 Jonctiune-3448  	6.86        	0.0149      	SCADA           	;
 Jonctiune-3458  	5.25        	0.15225     	SCADA           	;
 Jonctiune-3460  	7.18        	0.0118      	SCADA           	;
 Jonctiune-3461  	7.96        	0.11205     	SCADA           	;
 Jonctiune-3463  	9.17        	0.01805     	SCADA           	;
 Jonctiune-3464  	9.2         	0.15115     	SCADA           	;
 SenzorComunarzi-castanului	9           	0.0668      	SCADA           	;
 Jonctiune-3466  	5.75        	0.2603      	SCADA           	;
 Jonctiune-3467  	5.73        	0.01255     	SCADA           	;
 Jonctiune-3470  	8.5         	0.0204      	SCADA           	;
 Jonctiune-3471  	10.78       	0.08825     	SCADA           	;
 Jonctiune-3510  	11.21       	0.0129      	SCADA           	;
 Jonctiune-3566  	11.56       	0.0647      	SCADA           	;
 Jonctiune-3912  	9.5         	0.01        	SCADA           	;
 Jonctiune-3913  	9.8         	0.06295     	SCADA           	;
 Jonctiune-3917  	6.71        	0.00805     	SCADA           	;
 Jonctiune-3920  	6.72        	0.02905     	SCADA           	;
 Jonctiune-3921  	12          	0.02        	                	;
 Jonctiune-3956  	11          	0.01465     	SCADA           	;
 Jonctiune-3961  	12          	0.12        	SCADA           	;
 Jonctiune-3967  	11          	0.047       	SCADA           	;
 Jonctiune-3972  	11.38       	0.0121      	SCADA           	;
 Jonctiune-3974  	11.84       	0.00022     	SCADA           	;
 Jonctiune-4595  	9           	0.0153      	SCADA           	;
 Jonctiune-4602  	9.75        	0.18        	SCADA           	;
 Jonctiune-4614  	9           	0.0132      	SCADA           	;
 Jonctiune-4615  	9.5         	0.004       	SCADA           	;
 Jonctiune-4618  	10.72       	0.02155     	SCADA           	;
 Jonctiune-4619  	12          	0.009       	SCADA           	;
 Jonctiune-4706  	11          	1.8214      	SCADA           	;
 Jonctiune-4723  	7.25        	0.1904      	SCADA           	;
 Jonctiune-4731  	12          	0.04115     	SCADA           	;
 Jonctiune-4742  	12.04       	0.0058      	SCADA           	;
 Jonctiune-4743  	12.04       	0.0058      	SCADA           	;
 Jonctiune-12372 	10          	0.0017      	SCADA           	;
 Jonctiune-J-1   	9           	0.04        	SCADA           	;
 Jonctiune-J-3   	13.83       	0.0695      	SCADA           	;
 PT3             	9.74        	3.127       	SCADA           	;
 PT4             	9           	2.811       	SCADA           	;
 Jonctiune-J-10  	5.81        	0.0339      	SCADA           	;
 PT1             	11          	3.483       	SCADA           	;
 Jonctiune-J-15  	13.11       	0.04        	SCADA           	;
 Jonctiune-J-16  	9.68        	0.1594      	SCADA           	;
 Jonctiune-J-19  	11          	0.12115     	SCADA           	;
 Jonctiune-J-20  	8.71        	0.0602      	SCADA           	;
 Jonctiune-J-21  	10          	0.05585     	SCADA           	;
 Jonctiune-J-22  	10.3        	0.0119      	SCADA           	;
 Jonctiune-J-23  	11.05       	0.18035     	SCADA           	;
 Jonctiune-J-25  	9           	0.01945     	SCADA           	;
 Jonctiune-J-26  	10.5        	0.1         	SCADA           	;
 Jonctiune-J-27  	9           	0.1         	SCADA           	;
 Jonctiune-J-31  	9.16        	0.009       	SCADA           	;
 Jonctiune-J-32  	15.6767418122856	0.1232      	SCADA           	;
 Jonctiune-J-33  	8.85308269970862	0.18105     	SCADA           	;
 Jonctiune-J-34  	10.99       	0.01        	SCADA           	;
 197-A           	12          	0           	                	;
 197-B           	12          	0           	                	;
 198-A           	12          	0           	                	;
 198-B           	12          	0           	                	;
 199-A           	12          	0           	                	;
 199-B           	12          	0           	                	;
 200-A           	12          	0           	                	;
 200-B           	12          	0           	                	;
 201-A           	12          	0           	                	;
 201-B           	12          	0           	                	;
 202-A           	12          	0           	                	;
 202-B           	12          	0           	                	;
 203-A           	12          	0           	                	;
 203-B           	12          	0           	                	;
 205-A           	12          	0           	                	;
 205-B           	12          	0           	                	;
 206-A           	12          	0           	                	;
 206-B           	12          	0           	                	;
 207-A           	12          	0           	                	;
 207-B           	12          	0           	                	;
 210-A           	12          	0           	                	;
 210-B           	12          	0           	                	;
 212-A           	12          	0           	                	;
 212-B           	12          	0           	                	;
 213-A           	12          	0           	                	;
 213-B           	12          	0           	                	;
 214-A           	12          	0           	                	;
 214-B           	12          	0           	                	;
 215-A           	12          	0           	                	;
 215-B           	12          	0           	                	;
 216-A           	12          	0           	                	;
 216-B           	12          	0           	                	;
 217-A           	12          	0           	                	;
 217-B           	12          	0           	                	;
 218-A           	12          	0           	                	;
 218-B           	12          	0           	                	;
 226-A           	12          	0           	                	;
 226-B           	12          	0           	                	;
 228-A           	12          	0           	                	;
 228-B           	12          	0           	                	;
 229-A           	12          	0           	                	;
 229-B           	12          	0           	                	;
 230-A           	12          	0           	                	;
 230-B           	12          	0           	                	;
 231-A           	12          	0           	                	;
 231-B           	12          	0           	                	;
 232-A           	12          	0           	                	;
 232-B           	12          	0           	                	;
 233-A           	12          	0           	                	;
 233-B           	12          	0           	                	;
 235-A           	12          	0           	                	;
 235-B           	12          	0           	                	;
 236-A           	12          	0           	                	;
 236-B           	12          	0           	                	;
 237-A           	12          	0           	                	;
 237-B           	12          	0           	                	;
 240-A           	12          	0           	                	;
 240-B           	12          	0           	                	;
 241-A           	12          	0           	                	;
 241-B           	12          	0           	                	;
 242-A           	12          	0           	                	;
 242-B           	12          	0           	                	;
 243-A           	12          	0           	                	;
 243-B           	12          	0           	                	;
 244-A           	12          	0           	                	;
 244-B           	12          	0           	                	;
 245-A           	12          	0           	                	;
 245-B           	12          	0           	                	;
 246-A           	12          	0           	                	;
 246-B           	12          	0           	                	;
 247-A           	12          	0           	                	;
 247-B           	12          	0           	                	;
 248-A           	12          	0           	                	;
 248-B           	12          	0           	                	;
 249-A           	12          	0           	                	;
 249-B           	12          	0           	                	;
 250-A           	12          	0           	                	;
 250-B           	12          	0           	                	;
 251-A           	12          	0           	                	;
 251-B           	12          	0           	                	;
 253-A           	12          	0           	                	;
 253-B           	12          	0           	                	;
 254-A           	12          	0           	                	;
 254-B           	12          	0           	                	;
 255-A           	12          	0           	                	;
 255-B           	12          	0           	                	;
 256-A           	12          	0           	                	;
 256-B           	12          	0           	                	;
 257-A           	12          	0           	                	;
 257-B           	12          	0           	                	;
 258-A           	12          	0           	                	;
 258-B           	12          	0           	                	;
 259-A           	12          	0           	                	;
 259-B           	12          	0           	                	;
 260-A           	12          	0           	                	;
 260-B           	12          	0           	                	;
 261-A           	12          	0           	                	;
 261-B           	12          	0           	                	;
 263-A           	12          	0           	                	;
 263-B           	12          	0           	                	;
 264-A           	12          	0           	                	;
 264-B           	12          	0           	                	;
 265-A           	12          	0           	                	;
 265-B           	12          	0           	                	;
 266-A           	12          	0           	                	;
 266-B           	12          	0           	                	;
 267-A           	12          	0           	                	;
 267-B           	12          	0           	                	;
 268-A           	12          	0           	                	;
 268-B           	12          	0           	                	;
 269-A           	12          	0           	                	;
 269-B           	12          	0           	                	;
 270-A           	12          	0           	                	;
 270-B           	12          	0           	                	;
 271-A           	12          	0           	                	;
 271-B           	12          	0           	                	;
 275-A           	12          	0           	                	;
 275-B           	12          	0           	                	;
 276-A           	12          	0           	                	;
 276-B           	12          	0           	                	;
 279-A           	12          	0           	                	;
 279-B           	12          	0           	                	;
 280-A           	12          	0           	                	;
 280-B           	12          	0           	                	;
 281-A           	12          	0           	                	;
 281-B           	12          	0           	                	;
 282-A           	12          	0           	                	;
 282-B           	12          	0           	                	;
 283-A           	12          	0           	                	;
 283-B           	12          	0           	                	;
 286-A           	12          	0           	                	;
 286-B           	12          	0           	                	;
 287-A           	12          	0           	                	;
 287-B           	12          	0           	                	;
 288-A           	12          	0           	                	;
 288-B           	12          	0           	                	;
 290-A           	12          	0           	                	;
 290-B           	12          	0           	                	;
 291-A           	12          	0           	                	;
 291-B           	12          	0           	                	;
 748-A           	13          	0           	                	;
 748-B           	13          	0           	                	;
 751-A           	10.8060569001732	0           	                	;
 751-B           	10.8060569001732	0           	                	;
 760-A           	11          	0           	                	;
 760-B           	11          	0           	                	;
 763-A           	4.90597556184912	0           	                	;
 763-B           	4.90597556184912	0           	                	;

[RESERVOIRS]
;ID              	Head        	Pattern         
 GA-Braila       	10          	                	;
 Apollo          	0           	                	;
 RaduNegruMare   	0           	                	;
 RaduNegru2      	0           	                	;

[TANKS]
;ID              	Elevation   	InitLevel   	MinLevel    	MaxLevel    	Diameter    	MinVol      	VolCurve        	Overflow

[PIPES]
;ID              	Node1           	Node2           	Length      	Diameter    	Roughness   	MinorLoss   	Status
 Conducta-2592   	Jonctiune-3422  	245-A           	0.40000000001249	110         	0.304800000001219	0           	Open  	;
 Conducta-2560   	Jonctiune-2749  	Jonctiune-3386  	1.83370422811807	1000        	0.304800000001219	0           	Open  	;
 Conducta-2980   	Jonctiune-1875  	241-B           	1.85412143789789	100         	0.304800000001219	0           	Open  	;
 Conducta-2579   	Jonctiune-3425  	Jonctiune-J-1   	4.64043181651281	300         	0.304800000001219	0           	Open  	;
 Conducta-3577   	Jonctiune-3458  	Jonctiune-4723  	3.443033037851	110         	0.304800000001219	0           	Open  	;
 Conducta-2053   	Jonctiune-2753  	Jonctiune-2911  	3.59279130862215	100         	0.304800000001219	0           	Open  	;
 Conducta-1283   	Jonctiune-2196  	Jonctiune-1404  	3.83300920005183	110         	0.304800000001219	0           	Open  	;
 Conducta-1440   	249-A           	Jonctiune-1872  	4.26098925981418	125         	0.304800000001219	0           	Open  	;
 Conducta-1286   	Jonctiune-2200  	Jonctiune-2199  	4.7026585998925	100         	0.304800000001219	0           	Open  	;
 Conducta-1073   	Jonctiune-1998  	Jonctiune-1996  	6.07603521541963	100         	0.304800000001219	0           	Open  	;
 Conducta-701    	Jonctiune-2186  	Jonctiune-1414  	8.16495970126324	100         	0.304800000001219	0           	Open  	;
 Conducta-2977   	Jonctiune-1421  	Jonctiune-3961  	7.88121740573786	110         	0.304800000001219	0           	Open  	;
 Conducta-2954   	255-B           	Jonctiune-2752  	8.47260360228815	100         	0.304800000001219	0           	Open  	;
 Conducta-581    	Jonctiune-1226  	Jonctiune-1224  	11.3277358563818	110         	0.304800000001219	0           	Open  	;
 Conducta-1269   	Jonctiune-2179  	Jonctiune-2180  	16.1463438503054	100         	0.304800000001219	0           	Open  	;
 Conducta-1927   	Jonctiune-J-3   	Jonctiune-2734  	20.1650762415809	200         	0.304800000001219	0           	Open  	;
 Conducta-1935   	Jonctiune-2744  	Jonctiune-2735  	21.5845324854402	200         	0.304800000001219	0           	Open  	;
 Conducta-1945   	280-A           	Jonctiune-2755  	22.0071498800877	250         	0.304800000001219	0           	Open  	;
 Conducta-2976   	258-B           	Jonctiune-1632  	26.2481738562617	250         	0.304800000001219	0           	Open  	;
 Conducta-2637   	Jonctiune-3446  	Jonctiune-J-10  	28.2345698276602	100         	0.304800000001219	0           	Open  	;
 Conducta-11958  	Jonctiune-12372 	Jonctiune-2185  	56.9151908724384	100         	0.304800000001219	0           	Open  	;
 Conducta-1942   	Jonctiune-2750  	280-B           	71.889553407209	250         	0.304800000001219	0           	Open  	;
 Conducta-2209   	Jonctiune-3075  	Jonctiune-4614  	68.8550815129609	100         	0.304800000001219	0           	Open  	;
 Conducta-951    	Jonctiune-1616  	Jonctiune-2743  	111.106615090273	200         	0.304800000001219	0           	Open  	;
 Conducta-1289   	Jonctiune-2202  	Jonctiune-3956  	69.7584194094017	100         	0.304800000001219	0           	Open  	;
 Conducta-2720   	Jonctiune-3471  	Jonctiune-2182  	70.0970026938281	110         	0.304800000001219	0           	Open  	;
 Conducta-1300   	Jonctiune-2207  	Jonctiune-2739  	71.0335132236759	100         	0.304800000001219	0           	Open  	;
 Conducta-1276   	Jonctiune-2189  	Jonctiune-2190  	71.7430821248989	100         	0.304800000001219	0           	Open  	;
 Conducta-2611   	Jonctiune-3467  	Jonctiune-2750  	71.960210323741	500         	0.304800000001219	0           	Open  	;
 Conducta-3534   	Jonctiune-4742  	Jonctiune-4743  	71.9844284142546	63          	0.304800000001219	0           	Open  	;
 Conducta-2960   	Jonctiune-2197  	Jonctiune-3448  	72.0888162372063	100         	0.304800000001219	0           	Open  	;
 Conducta-1940   	Jonctiune-4723  	Jonctiune-3466  	72.4680255755983	110         	0.304800000001219	0           	Open  	;
 Conducta-1071   	Jonctiune-1996  	Jonctiune-1997  	73.7027636958097	200         	0.304800000001219	0           	Open  	;
 Conducta-702    	Jonctiune-2186  	Jonctiune-2177  	73.17428385473	150         	0.304800000001219	0           	Open  	;
 Conducta-1931   	Jonctiune-2737  	Jonctiune-J-15  	73.6304192187512	200         	0.304800000001219	0           	Open  	;
 Conducta-3578   	Jonctiune-3458  	Jonctiune-2756  	74.5980620456303	110         	0.304800000001219	0           	Open  	;
 Conducta-2953   	Jonctiune-3912  	Jonctiune-3471  	74.6103073892987	100         	0.304800000001219	0           	Open  	;
 Conducta-2044   	Jonctiune-1405  	Jonctiune-1406  	74.6430298755473	110         	0.304800000001219	0           	Open  	;
 Conducta-2210   	Jonctiune-3075  	Jonctiune-4615  	74.7724839734334	50          	0.304800000001219	0           	Open  	;
 Conducta-1281   	Jonctiune-2195  	Jonctiune-2777  	75.2879109812312	100         	0.304800000001219	0           	Open  	;
 Conducta-1278   	Jonctiune-2187  	Jonctiune-2192  	75.5517350049167	100         	0.304800000001219	0           	Open  	;
 Conducta-1293   	Jonctiune-2203  	Jonctiune-2204  	75.5754674589077	100         	0.304800000001219	0           	Open  	;
 Conducta-1934   	Jonctiune-J-15  	Jonctiune-2744  	75.7395858442746	200         	0.304800000001219	0           	Open  	;
 Conducta-1298   	Jonctiune-J-16  	Jonctiune-2207  	75.7791755880782	200         	0.304800000001219	0           	Open  	;
 Conducta-1297   	Jonctiune-2200  	Jonctiune-J-16  	76.3370207627847	250         	0.304800000001219	0           	Open  	;
 Conducta-2198   	Jonctiune-2204  	Jonctiune-3068  	76.5708141617406	100         	0.304800000001219	0           	Open  	;
 Conducta-1946   	Jonctiune-2756  	Jonctiune-3446  	78.7890908487924	110         	0.304800000001219	0           	Open  	;
 Conducta-11960  	Jonctiune-12372 	Jonctiune-4731  	78.4812270334251	100         	0.304800000001219	0           	Open  	;
 Conducta-3604   	Jonctiune-2735  	Jonctiune-1875  	78.5953681086185	200         	0.304800000001219	0           	Open  	;
 Conducta-1941   	Jonctiune-3466  	Jonctiune-2753  	79.233269324107	110         	0.304800000001219	0           	Open  	;
 Conducta-2719   	SenzorComunarzi-castanului	Jonctiune-2879  	79.8740993403407	110         	0.304800000001219	0           	Open  	;
 Conducta-2017   	Jonctiune-2193  	Jonctiune-2187  	80.2199906265437	100         	0.304800000001219	0           	Open  	;
 Conducta-1929   	Jonctiune-2205  	Jonctiune-2736  	80.8358771737744	200         	0.304800000001219	0           	Open  	;
 Conducta-11961  	Jonctiune-2182  	Jonctiune-12372 	80.8839622459336	100         	0.304800000001219	0           	Open  	;
 Conducta-1274   	Jonctiune-2177  	Jonctiune-1995  	84.57551991841	150         	0.304800000001219	0           	Open  	;
 Conducta-1280   	Jonctiune-2194  	Jonctiune-2195  	84.1912461280128	100         	0.304800000001219	0           	Open  	;
 Conducta-1279   	Jonctiune-2776  	Jonctiune-2194  	85.031121642204	100         	0.304800000001219	0           	Open  	;
 Conducta-1930   	Jonctiune-2736  	Jonctiune-2737  	86.7727587771431	200         	0.304800000001219	0           	Open  	;
 Conducta-2206   	Jonctiune-2207  	Jonctiune-4618  	88.0503094510396	63          	0.304800000001219	0           	Open  	;
 Conducta-1295   	Jonctiune-2206  	Jonctiune-2205  	92.1833444449447	150         	0.304800000001219	0           	Open  	;
 Conducta-837    	Jonctiune-J-19  	Jonctiune-2200  	94.7155605195945	200         	0.304800000001219	0           	Open  	;
 Conducta-2612   	Jonctiune-1872  	Jonctiune-3464  	118.657121623188	100         	0.304800000001219	0           	Open  	;
 Conducta-825    	Jonctiune-1634  	Jonctiune-2737  	122.309661896704	250         	0.304800000001219	0           	Open  	;
 Conducta-1070   	Jonctiune-1995  	Jonctiune-1996  	130.088840518872	150         	0.304800000001219	0           	Open  	;
 Conducta-2018   	Jonctiune-3967  	Jonctiune-2193  	131.902857940802	100         	0.304800000001219	0           	Open  	;
 Conducta-827    	Jonctiune-1636  	Jonctiune-1641  	138.908023707601	250         	0.304800000001219	0           	Open  	;
 Conducta-1275   	Jonctiune-2188  	Jonctiune-2187  	146.449147397802	100         	0.304800000001219	0           	Open  	;
 Conducta-582    	Jonctiune-1226  	SenzorChisinau-Titulescu	154.897006631747	150         	0.304800000001219	0           	Open  	;
 Conducta-11947  	Jonctiune-J-21  	Jonctiune-J-22  	153.087911432424	100         	0.304800000001219	0           	Open  	;
 Conducta-1074   	Jonctiune-2176  	Jonctiune-J-23  	163.526910060503	200         	0.304800000001219	0           	Open  	;
 Conducta-2636   	Jonctiune-J-10  	Jonctiune-3920  	164.160489055411	100         	0.304800000001219	0           	Open  	;
 Conducta-2722   	Jonctiune-3471  	Jonctiune-1413  	171.439013316723	110         	0.304800000001219	0           	Open  	;
 Conducta-1284   	SenzorChisinau-Titulescu	Jonctiune-2197  	172.103517298705	100         	0.304800000001219	0           	Open  	;
 Conducta-2194   	Jonctiune-4731  	Jonctiune-2196  	172.502534501538	100         	0.304800000001219	0           	Open  	;
 Conducta-2580   	Jonctiune-3422  	Jonctiune-J-25  	186.110639830345	1000        	0.304800000001219	0           	Open  	;
 Conducta-705    	Jonctiune-2187  	Jonctiune-1421  	182.145330919991	100         	0.304800000001219	0           	Open  	;
 Conducta-2721   	Jonctiune-2879  	Jonctiune-3471  	183.45991985293	110         	0.304800000001219	0           	Open  	;
 Conducta-1947   	Jonctiune-2756  	Jonctiune-2197  	190.648251255001	110         	0.304800000001219	0           	Open  	;
 Conducta-1973   	Jonctiune-J-16  	Jonctiune-2773  	195.454145172713	100         	0.304800000001219	0           	Open  	;
 Conducta-954    	SenzorComunarzi-NatVech	Jonctiune-1877  	209.319006401576	250         	0.304800000001219	0           	Open  	;
 Conducta-1072   	Jonctiune-1877  	Jonctiune-1998  	223.507705655073	100         	0.304800000001219	0           	Open  	;
 Conducta-703    	Jonctiune-1413  	Jonctiune-2196  	228.065977949415	110         	0.304800000001219	0           	Open  	;