[TITLE]
Scenario: Adjusted demands
Date: 28/12/2021 09:18:41

[JUNCTIONS]
;ID              	Elev        	Demand      	Pattern         
 275-A           	12          	0           	                	;
 258-A           	12          	0           	                	;
 255-A           	12          	0           	                	;
 J-1640          	9.8         	0           	                	;
 Jonctiune-J-34  	10.99       	0.01        	Adj_Resid5      	;
 Jonctiune-J-32  	15.676741812	0.1232      	Adj_Resid7      	;
 Jonctiune-J-31  	9.16        	0.009       	Adj_Resid1      	;
 Jonctiune-J-27  	9           	0.1         	Adj_Resid1      	;
 Jonctiune-J-26  	10.5        	0.1         	Adj_Resid1      	;
 Jonctiune-J-25  	9           	0.01945     	Adj_Resid1      	;
 Jonctiune-J-23  	11.05       	0.18035     	Adj_Resid4      	;
 Jonctiune-12588 	10.3        	0.0119      	Adj_Resid3      	;
 Jonctiune-J-21  	10          	0.05585     	Adj_Resid5      	;
 Jonctiune-J-20  	8.71        	0.0602      	Adj_Resid3      	;
 Jonctiune-J-19  	11          	0.12115     	Adj_Resid5      	;
 Jonctiune-J-16  	9.68        	0.1594      	Adj_Resid5      	;
 Jonctiune-J-15  	13.11       	0.04        	Adj_Resid7      	;
 PT1             	11          	3.56        	Adj_PT1         	;
 PT4             	9           	2.811       	Adj_PT4         	;
 PT3             	9.74        	3.127       	Adj_PT3         	;
 Jonctiune-J-3   	13.83       	0.0695      	Adj_Resid7      	;
 Jonctiune-J-1   	9           	0.04        	Adj_Resid1      	;
 Jonctiune-12372 	10          	0.0017      	Adj_Resid2      	;
 Jonctiune-4743  	12.04       	0.0058      	Adj_Resid2      	;
 Jonctiune-4742  	12.04       	0.0058      	Adj_Resid2      	;
 Jonctiune-4731  	12          	0.04115     	Adj_Resid2      	;
 Jonctiune-4723  	7.25        	0.3427      	Adj_Resid1      	;
 J-RN2           	11          	1.8214      	Adj_Resid5      	;
 Jonctiune-4619  	12          	0.009       	Adj_Resid6      	;
 Jonctiune-4618  	10.72       	0.02155     	Adj_Resid3      	;
 Jonctiune-4615  	9.5         	0.004       	Adj_Resid2      	;
 -               	9           	0.0132      	Adj_Resid3      	;
 Jonctiune-4602  	9.75        	0.18        	Adj_Resid3      	;
 Jonctiune-4595  	9           	0.0153      	Adj_Resid1      	;
 Jonctiune-3972  	11.38       	0.0121      	Adj_Resid6      	;
 Jonctiune-3967  	11          	0.047       	Adj_Resid2      	;
 Jonctiune-3961  	12          	0.12        	Adj_Resid4      	;
 Jonctiune-3956  	11          	0.01465     	Adj_Resid5      	;
 Jonctiune-3920  	6.72        	0.02905     	Adj_Resid1      	;
 Jonctiune-3917  	6.71        	0.00805     	Adj_Resid1      	;
 Jonctiune-3913  	9.8         	0.136       	Adj_Resid2      	;
 Jonctiune-3566  	11.56       	0.0647      	Adj_Resid4      	;
 Jonctiune-3510  	11.21       	0.0129      	Adj_Resid2      	;
 Jonctiune-3471  	10.78       	0.08825     	Adj_Resid2      	;
 Jonctiune-3470  	8.5         	0.0204      	Adj_Resid1      	;
 Jonctiune-3467  	5.73        	0.01255     	Adj_Resid1      	;
 Jonctiune-3466  	5.75        	0.2603      	Adj_Resid1      	;
 Sensor3         	9           	0.0668      	Adj_Resid1      	;
 Jonctiune-3464  	9.2         	0.15115     	Adj_Resid1      	;
 Jonctiune-3448  	6.86        	0.0149      	Adj_Resid1      	;
 Jonctiune-3446  	5.5         	0.0433      	Adj_Resid1      	;
 Jonctiune-3425  	9.1         	0.0334      	Adj_Resid1      	;
 Jonctiune-3422  	6.7         	0.01945     	Adj_Resid1      	;
 Jonctiune-3386  	8.62        	0.03        	Adj_Resid1      	;
 Jonctiune-3075  	9.25        	0.074       	Adj_Resid2      	;
 Jonctiune-3074  	10          	0.0711      	Adj_Resid3      	;
 Jonctiune-3068  	12          	0.00145     	Adj_Resid5      	;
 Jonctiune-3067  	9           	0.2042      	Adj_Resid3      	;
 Jonctiune-2968  	12.19       	0.05        	Adj_Resid6      	;
 J-Apollo        	11.84       	0.2         	Adj_Resid6      	;
 Jonctiune-2879  	10.96       	0.05225     	Adj_Resid1      	;
 Jonctiune-2777  	10.62       	0.0092      	Adj_Resid4      	;
 Jonctiune-2776  	11.18       	0.0052      	Adj_Resid4      	;
 Jonctiune-2774  	9.03        	0.3472      	Adj_Resid3      	;
 Jonctiune-2756  	5.19        	0.10075     	Adj_Resid1      	;
 Jonctiune-2755  	8.42        	0.0125      	Adj_Resid1      	;
 Jonctiune-2753  	7.21        	0.1307      	Adj_Resid1      	;
 Jonctiune-2752  	8.52        	0.046       	Adj_Resid3      	;
 Jonctiune-2751  	7.87        	0.04895     	Adj_Resid1      	;
 Jonctiune-2750  	7.27        	0.02905     	Adj_Resid1      	;
 J-RN1           	7.36        	0.038       	Adj_Resid1      	;
 Jonctiune-2744  	12.69       	0           	                	;
 Jonctiune-2743  	9.96        	0.1         	Adj_Resid5      	;
 PT2             	11.86       	3.305       	Adj_PT2         	;
 Jonctiune-2739  	10.72       	0.00945     	Adj_Resid5      	;
 Jonctiune-2738  	13.4        	0.0041      	Adj_Resid7      	;
 Jonctiune-2737  	13.08       	0           	                	;
 Jonctiune-2736  	12.48       	0.0655      	Adj_Resid7      	;
 Jonctiune-2735  	12.48       	0           	                	;
 Jonctiune-2734  	13.62       	0.0189      	Adj_Resid7      	;
 Jonctiune-2730  	5.88        	0           	                	;
 Jonctiune-2729  	5.35        	0.0334      	Adj_Resid1      	;
 Jonctiune-2208  	6.79        	0.10375     	Adj_Resid1      	;
 Jonctiune-2207  	9.58        	0.10455     	Adj_Resid5      	;
 Jonctiune-2206  	13.74       	0.3198      	Adj_Resid7      	;
 Jonctiune-2205  	13.42       	0           	                	;
 Jonctiune-2204  	11.39       	0.0776      	Adj_Resid5      	;
 Jonctiune-2203  	11.07       	0.3455      	Adj_Resid5      	;
 Jonctiune-2202  	10.27       	0.10505     	Adj_Resid7      	;
 Jonctiune-2201  	10.95       	0           	                	;
 Jonctiune-2200  	9.32        	0.8989      	Adj_Resid5      	;
 Sensor4         	7.58        	0.15805     	Adj_Resid3      	;
 Jonctiune-2197  	6.26        	0.20055     	Adj_Resid1      	;
 Jonctiune-2196  	11.4        	0.3349      	Adj_Resid2      	;
 Jonctiune-2195  	10.77       	0.552       	Adj_Resid4      	;
 Jonctiune-2194  	10.77       	0.2312      	Adj_Resid4      	;
 Jonctiune-2193  	11.39       	0.24295     	Adj_Resid2      	;
 Jonctiune-2192  	11.94       	0.31435     	Adj_Resid4      	;
 Jonctiune-2191  	11.58       	0.0144      	Adj_Resid2      	;
 Jonctiune-2190  	11.84       	0.027       	Adj_Resid2      	;
 Jonctiune-2189  	11.84       	0.0298      	Adj_Resid2      	;
 Jonctiune-2188  	11.84       	0.0392      	Adj_Resid2      	;
 Jonctiune-2187  	11.84       	0.10305     	Adj_Resid4      	;
 Jonctiune-2186  	11.67       	0.0368      	Adj_Resid6      	;
 Jonctiune-2185  	11.33       	0.05        	Adj_Resid2      	;
 Jonctiune-2184  	11.18       	0.0558      	Adj_Resid6      	;
 Jonctiune-2182  	10.5        	0           	                	;
 Jonctiune-2181  	10.74       	0.06675     	Adj_Resid2      	;
 Jonctiune-2180  	10.48       	0.1199      	Adj_Resid2      	;
 Sensor2         	10.92       	0.0081      	Adj_Resid2      	;
 Jonctiune-2177  	11.37       	0.27845     	Adj_Resid6      	;
 Jonctiune-2176  	10.99       	0.0874      	Adj_Resid4      	;
 Jonctiune-1998  	11.29       	0.08095     	Adj_Resid6      	;
 Jonctiune-1997  	11.29       	0.01255     	Adj_Resid6      	;
 Jonctiune-1996  	11.29       	0.0258      	Adj_Resid6      	;
 Jonctiune-1995  	11.55       	0.0013      	Adj_Resid6      	;
 Jonctiune-1877  	10.81       	0.10035     	Adj_Resid6      	;
 Sensor1         	12.05       	0.0185      	Adj_Resid6      	;
 Jonctiune-1875  	12.45       	0.176       	Adj_Resid6      	;
 Jonctiune-1874  	10.68       	0.183       	Adj_Resid6      	;
 Jonctiune-1872  	9.25        	0.02815     	Adj_Resid1      	;
 Jonctiune-1646  	13.87       	0           	                	;
 Jonctiune-1642  	13.98       	0.222       	Adj_Resid7      	;
 Jonctiune-1641  	10.52       	0.0554      	Adj_Resid5      	;
 Jonctiune-1638  	9.21        	0.1033      	Adj_Resid3      	;
 Jonctiune-1637  	9.57        	0           	                	;
 Jonctiune-1636  	8.96        	0.0554      	Adj_Resid3      	;
 Jonctiune-1635  	10.99       	0.0657      	Adj_Resid5      	;
 Jonctiune-1634  	12.91       	0           	                	;
 Jonctiune-1632  	11.52       	0           	                	;
 Jonctiune-1628  	11.89       	0           	                	;
 Jonctiune-1616  	11.2        	0           	                	;
 Jonctiune-1610  	10.86       	0.0068      	Adj_Resid4      	;
 Jonctiune-1421  	12.3        	0.04115     	Adj_Resid4      	;
 Jonctiune-1419  	12.27       	0.00095     	Adj_Resid6      	;
 Jonctiune-1415  	11.66       	0.2623      	Adj_Resid4      	;
 Jonctiune-1414  	12.46       	0.02145     	Adj_Resid6      	;
 Jonctiune-1413  	10.23       	0.03985     	Adj_Resid2      	;
 Jonctiune-1407  	12.54       	0.1         	Adj_Resid2      	;
 Jonctiune-1406  	11.67       	0.07        	Adj_Resid2      	;
 Jonctiune-1405  	12.04       	0.0058      	Adj_Resid2      	;
 Jonctiune-1226  	9           	0.1544      	Adj_Resid3      	;
 Jonctiune-1225  	9.01        	0.0674      	Adj_Resid3      	;
 Jonctiune-267   	9.39        	0.0669      	Adj_Resid3      	;

[RESERVOIRS]
;ID              	Head        	Pattern         
 RaduNegru1      	1           	RN1_1011        	;
 Apollo          	1           	Apollo_mod      	;
 RaduNegru2      	1           	RN2_modif       	;
 GA              	1           	GABraila        	;

[TANKS]
;ID              	Elevation   	InitLevel   	MinLevel    	MaxLevel    	Diameter    	MinVol      	VolCurve        	Overflow

[PIPES]
;ID              	Node1           	Node2           	Length      	Diameter    	Roughness   	MinorLoss   	Status
 Conducta-1298   	Jonctiune-J-16  	Jonctiune-2207  	75.779175588	200         	4.9831309319	0           	Open  	;
 Conducta-1293   	Jonctiune-2203  	Jonctiune-2204  	75.575467459	100         	1.2400709391	0           	Open  	;
 Conducta-1278   	Jonctiune-2187  	Jonctiune-2192  	75.551735005	100         	0.019964430481	0           	Open  	;
 Conducta-1281   	Jonctiune-2195  	Jonctiune-2777  	75.287910981	100         	3.2222912312	0           	Open  	;
 Conducta-2210   	Jonctiune-3075  	Jonctiune-4615  	74.772483973	50          	1.4443439245	0           	Open  	;
 Conducta-2044   	Jonctiune-1405  	Jonctiune-1406  	74.643029876	110         	4.5072631836	0           	Open  	;
 Conducta-2953   	Jonctiune-3913  	Jonctiune-3471  	77          	100         	4.3553905487	0           	Open  	;
 Conducta-3578   	Jonctiune-4723  	Jonctiune-2756  	78          	110         	0.17143447697	0           	Open  	;
 Conducta-1931   	Jonctiune-2737  	Jonctiune-J-15  	73.630419219	200         	0.008972725831	0           	Open  	;
 Conducta-702    	Jonctiune-2186  	Jonctiune-2177  	73.174283855	150         	1.6456531286	0           	Open  	;
 Conducta-1071   	Jonctiune-1996  	Jonctiune-1997  	73.702763696	100         	3.7587714195	0           	Open  	;
 Conducta-1940   	Jonctiune-4723  	Jonctiune-3466  	72.468025576	110         	0.027348246425	0           	Open  	;
 Conducta-2960   	Jonctiune-2197  	Jonctiune-3448  	72.088816237	100         	0.0094850761816	0           	Open  	;
 Conducta-3534   	Jonctiune-4742  	Jonctiune-4743  	71.984428414	63          	3.0765278339	0           	Open  	;
 Conducta-2611   	Jonctiune-3467  	Jonctiune-2750  	71.960210324	500         	0.0078485254198	0           	Open  	;
 Conducta-1276   	Jonctiune-2189  	Jonctiune-2190  	71.743082125	100         	3.0816981792	0           	Open  	;
 Conducta-1300   	Jonctiune-2207  	Jonctiune-2739  	71.033513224	100         	0.89508074522	0           	Open  	;
 Conducta-2720   	Jonctiune-3471  	Jonctiune-2182  	70.097002694	110         	4.927148819 	0           	Open  	;
 Conducta-1289   	Jonctiune-2202  	Jonctiune-3956  	69.758419409	100         	0.79122412205	0           	Open  	;
 Conducta-951    	Jonctiune-1616  	Jonctiune-2743  	111.10661509	200         	2.9729261398	0           	Open  	;
 Conducta-2209   	Jonctiune-3075  	-               	68.855081513	100         	2.6375877857	0           	Open  	;
 Conducta-1942   	Jonctiune-2750  	Jonctiune-2755  	83.9        	250         	0.0011159661226	0           	Open  	;
 Conducta-11958  	Jonctiune-12372 	Jonctiune-2185  	56.915190872	100         	1.4618045092	0           	Open  	;
 Conducta-2976   	258-A           	Jonctiune-1632  	26.248173856	250         	0.94664883614	0           	Open  	;
 Conducta-1935   	Jonctiune-2744  	Jonctiune-2735  	21.584532485	200         	0.22250254452	0           	Open  	;
 Conducta-1927   	Jonctiune-J-3   	Jonctiune-2734  	20.165076242	200         	1.4591932297	0           	Open  	;
 Conducta-2954   	255-A           	Jonctiune-2752  	8.4726036023	100         	4.2256932259	0           	Open  	;
 Conducta-2977   	Jonctiune-1421  	Jonctiune-3961  	7.8812174057	110         	0.016151050106	0           	Open  	;
 Conducta-701    	Jonctiune-2186  	Jonctiune-1414  	8.1649597013	100         	3.6851875782	0           	Open  	;
 Conducta-1073   	Jonctiune-1998  	Jonctiune-1996  	6.0760352154	100         	3.3575115204	0           	Open  	;
 Conducta-1440   	Jonctiune-J-31  	Jonctiune-1872  	4.2609892598	125         	0.0027135256678	0           	Open  	;
 Conducta-2579   	Jonctiune-3425  	Jonctiune-J-1   	4.6404318165	300         	3.5630609989	0           	Open  	;
 Conducta-2560   	J-RN1           	Jonctiune-3386  	1.8337042281	1000        	3.2030379772	0           	Open  	;
 P-10(1)         	Jonctiune-1641  	J-1640          	3.8         	150         	4.9046096802	0           	Open  	;
 Conducta-1279(2)	Jonctiune-2776  	Jonctiune-2194  	85          	100         	2.4726054668	0           	Open  	;
 Conducta-1934(2)	Jonctiune-J-15  	Jonctiune-2744  	75.8        	200         	0.010593836196	0           	Open  	;
 Conducta-2904(1)(1)(2)	Jonctiune-1419  	Jonctiune-3961  	249.99720121	200         	0.0038960680831	0           	Open  	;
 Conducta-2904(1)(1)(1)	J-Apollo        	Jonctiune-1419  	124.6       	200         	0.0021085978951	0           	Open  	;
 Conducta-2956(1)(2)	Jonctiune-2752  	Jonctiune-1226  	80.390863137	150         	0.72393977642	0           	Open  	;
 Conducta-2956(1)(1)	Jonctiune-2774  	Jonctiune-2752  	88          	150         	0.7388202548	0           	Open  	;
 Conducta-2904(1)(2)	Jonctiune-3961  	Jonctiune-3566  	71.246422688	200         	3.2964377403	0           	Open  	;
 Conducta-2962(1)	Jonctiune-3067  	Jonctiune-3917  	163.9       	100         	0.17198385298	0           	Open  	;
 Conducta-1928(2)	Jonctiune-J-32  	Jonctiune-2206  	79.725139941	200         	0.068049840629	0           	Open  	;
 Conducta-1928(1)	Jonctiune-2734  	Jonctiune-J-32  	71.512464843	200         	2.4933586121	0           	Open  	;
 Conducta-1272(2)	Jonctiune-2184  	Jonctiune-1419  	8.2008366267	110         	0.014763072133	0           	Open  	;
 Conducta-2975(2)(2)	Jonctiune-1635  	258-A           	112.05027184	250         	2.0134561062	0           	Open  	;
 Conducta-2975(2)(1)	Jonctiune-1641  	Jonctiune-1635  	167.69730238	250         	1.4681605101	0           	Open  	;
 Conducta-2982(1)(2)	Jonctiune-1874  	Jonctiune-1610  	389.24085314	110         	4.9067802429	0           	Open  	;
 Conducta-2982(1)(1)	Jonctiune-3972  	Jonctiune-1874  	54.894512464	110         	3.1589727402	0           	Open  	;
 Conducta-2063(2)	Jonctiune-3425  	Jonctiune-J-27  	24.05430013 	300         	1.5154594183	0           	Open  	;
 Conducta-2063(1)	Jonctiune-2729  	Jonctiune-3425  	421.59224591	300         	4.2472915649	0           	Open  	;
 Conducta-2196(2)	Sensor4         	Jonctiune-3067  	73.7        	150         	2.0379390717	0           	Open  	;
 Conducta-1916(2)	Jonctiune-3466  	Jonctiune-1226  	366.2       	100         	4.8031392097	0           	Open  	;
 Conducta-11959(2)	Jonctiune-3510  	Jonctiune-12372 	356.55316812	100         	4.2663936615	0           	Open  	;
 Conducta-11959(1)	Jonctiune-1996  	Jonctiune-3510  	437.61552435	150         	4.7278189659	0           	Open  	;
 Conducta-2946(2)	Sensor3         	Jonctiune-3913  	193.09611816	110         	0.022005777806	0           	Open  	;
 Conducta-695(1)(1)	Jonctiune-1406  	Jonctiune-1407  	93.2        	110         	2.3616843224	0           	Open  	;
 Conducta-1977(1)(1)	Jonctiune-J-20  	Jonctiune-4602  	139.60913944	250         	0.028762994334	0           	Open  	;
 Conducta-2564(2)	Jonctiune-J-21  	J-RN2           	180.76051637	100         	0.0043685617857	0           	Open  	;
 Conducta-2564(1)	Jonctiune-3067  	Jonctiune-J-21  	183.17199643	100         	0.067696481943	0           	Open  	;
 Conducta-3347(2)	Jonctiune-1638  	PT4             	41.536913662	200         	0.0013712472282	0           	Open  	;
 Conducta-3348(1)	Jonctiune-1638  	Jonctiune-1637  	109.91993459	300         	4.9558849335	0           	Open  	;
 Conducta-9419(2)	Jonctiune-4602  	PT3             	30.977513282	200         	0.0022560113575	0           	Open  	;
 Conducta-2945(1)	Jonctiune-1872  	Sensor3         	75.353336449	110         	0.0011686407961	0           	Open  	;
 Conducta-2613(2)	Jonctiune-1872  	Jonctiune-4595  	77.555264826	100         	0.30838409066	0           	Open  	;
 Conducta-957(2) 	Jonctiune-1872  	Jonctiune-3075  	184.64612977	100         	2.3470473289	0           	Open  	;
 Conducta-3391(2)	Jonctiune-2750  	Jonctiune-1638  	433.12805563	300         	0.0013043103972	0           	Open  	;
 Conducta-826(2) 	Jonctiune-1632  	Jonctiune-1634  	136.57959972	250         	0.025711450726	0           	Open  	;
 Conducta-2983(1)	Jonctiune-1875  	Jonctiune-3972  	208.04214884	110         	3.574498415 	0           	Open  	;
 Conducta-953(2) 	Sensor1         	Jonctiune-2186  	79.2        	150         	0.067645318806	0           	Open  	;
 Conducta-1268(2)	Sensor2         	Jonctiune-2180  	189.1       	100         	2.9068837166	0           	Open  	;
 Conducta-700(1) 	Jonctiune-1415  	Sensor2         	72.6        	110         	2.5815386772	0           	Open  	;
 Conducta-2987(1)	275-A           	Sensor2         	197.2       	100         	4.4503421783	0           	Open  	;
 Conducta-2979(1)	Sensor2         	Jonctiune-3967  	20.8        	110         	0.22723200917	0           	Open  	;
 Conducta-2978(2)	Jonctiune-3566  	Jonctiune-2776  	9.1827453863	200         	2.8153111935	0           	Open  	;
 Conducta-1287(1)	Jonctiune-2200  	Jonctiune-2201  	249.30275336	100         	0.28029710054	0           	Open  	;
 Conducta-1292(2)	Jonctiune-2201  	Jonctiune-2203  	76.21250695 	100         	0.73449754715	0           	Open  	;
 Conducta-1288(2)	Jonctiune-2206  	Jonctiune-2201  	450.35051096	100         	2.3205230236	0           	Open  	;
 Conducta-2959(2)	Jonctiune-3448  	Jonctiune-2730  	4.0649507951	100         	0.0015190619742	0           	Open  	;
 Conducta-2961(2)	Jonctiune-3448  	Jonctiune-3917  	5.823462003 	40          	0.0065421247855	0           	Open  	;
 Conducta-2189(2)(1)	J-RN1           	Jonctiune-3467  	298.9127771 	300         	0.0011035138741	0           	Open  	;
 Conducta-1441(2)	Jonctiune-J-31  	Jonctiune-J-20  	308.40299773	250         	0.0064759529196	0           	Open  	;
 Conducta-1944(2)	Jonctiune-2755  	Jonctiune-J-31  	71.426338498	250         	0.0044597135857	0           	Open  	;
 Conducta-1943(2)	Jonctiune-2755  	Jonctiune-3470  	103.77569742	110         	2.250923872 	0           	Open  	;
 Conducta-3576(1)	Jonctiune-2755  	Jonctiune-2774  	356.47726087	110         	0.0029192478396	0           	Open  	;
 Conducta-2594(2)	Jonctiune-3386  	Jonctiune-J-26  	222.68987727	50          	2.0395340919	0           	Open  	;
 Conducta-958(1)(2)	Jonctiune-267   	Jonctiune-1610  	187.6       	110         	0.014015894383	0           	Open  	;
 Conducta-1933(1)	Jonctiune-2203  	Jonctiune-1646  	390.07778484	100         	2.6713964939	0           	Open  	;
 Conducta-833(2) 	Jonctiune-1646  	Jonctiune-2738  	14.50164374 	100         	1.5665864944	0           	Open  	;
 Conducta-831(2) 	Jonctiune-2744  	Jonctiune-1642  	9.2167973225	100         	3.9490027428	0           	Open  	;
 Conducta-818(2) 	Jonctiune-1616  	Jonctiune-2176  	144.2       	200         	4.5626182556	0           	Open  	;
 Conducta-830(2) 	Jonctiune-2207  	Jonctiune-1641  	76.117410979	200         	4.9885072708	0           	Open  	;
 Conducta-828(2) 	Jonctiune-1637  	Jonctiune-1636  	59.747833517	250         	4.9800000191	0           	Open  	;
 Conducta-11778(1)	Jonctiune-3068  	Jonctiune-J-34  	75.098013746	100         	2.0436360836	0           	Open  	;
 Conducta-824(2) 	Jonctiune-1632  	PT1             	51          	150         	4.9988832474	0           	Open  	;
 Conducta-823(2) 	Jonctiune-1628  	PT2             	26.843355851	200         	4.9345426559	0           	Open  	;
 Conducta-822(2) 	Jonctiune-2735  	Jonctiune-1628  	142.56778762	250         	4.9803290367	0           	Open  	;
 Conducta-956(1) 	Jonctiune-1877  	Jonctiune-1616  	247.4       	250         	2.7883019447	0           	Open  	;
 Conducta-949(2) 	Jonctiune-267   	Jonctiune-1413  	78.448932413	100         	1.9945402145	0           	Open  	;
 Conducta-950(2) 	Jonctiune-1610  	Jonctiune-1415  	75.185748572	110         	1.4240826368	0           	Open  	;
 Conducta-948(2) 	Jonctiune-3913  	Jonctiune-267   	168.61076729	110         	0.0091060418636	0           	Open  	;
 Conducta-699(2)(1)	Jonctiune-1414  	Jonctiune-1415  	611.80938057	110         	4.9945483208	0           	Open  	;
 Conducta-704(1) 	Jonctiune-1413  	Jonctiune-1415  	184.02646309	110         	0.15495479107	0           	Open  	;
 Conducta-696(2) 	Jonctiune-2192  	Jonctiune-1406  	186.5       	76          	3.8849637508	0           	Open  	;
 Conducta-1277(2)	Jonctiune-1406  	Jonctiune-2191  	80.1        	63          	0.45386788249	0           	Open  	;
 Conducta-2724(2)	Jonctiune-1405  	Jonctiune-2189  	52.1        	100         	0.63901132345	0           	Open  	;
 Conducta-3610(2)	Jonctiune-4742  	Jonctiune-1405  	11.3        	110         	2.6954872608	0           	Open  	;
 Conducta-2725(1)	Jonctiune-1405  	Jonctiune-2188  	43.9        	100         	2.3154039383	0           	Open  	;
 Conducta-3609(1)	Jonctiune-2196  	Jonctiune-4742  	70.1        	110         	0.88985711336	0           	Open  	;
 Conducta-580(1) 	Jonctiune-1226  	Jonctiune-1225  	170.8       	110         	0.97377717495	0           	Open  	;
 Conducta-1932(2)	Sensor1         	Jonctiune-4619  	69.3        	150         	0.95148217678	0           	Open  	;
 Conducta-952(1) 	Jonctiune-1875  	Sensor1         	10.8        	200         	4.8536343575	0           	Open  	;
 Conducta-2099(2)	J-Apollo        	Jonctiune-2968  	267.9       	110         	4.9996647835	0           	Open  	;
 Conducta-1290   	Jonctiune-2734  	Jonctiune-2202  	589.63700389	100         	3.6641850471	0           	Open  	;
 Conducta-1974   	Jonctiune-12588 	Jonctiune-4723  	546.5       	100         	1.6458250284	0           	Open  	;
 Conducta-2988   	Jonctiune-2177  	275-A           	398.26720759	100         	4.9048752785	0           	Open  	;
 Conducta-1285   	Jonctiune-2200  	Sensor4         	375.2       	100         	0.058163754642	0           	Open  	;
 Conducta-1282   	Jonctiune-J-23  	Jonctiune-2196  	365.80760074	100         	0.053745966405	0           	Open  	;
 Conducta-2591   	Jonctiune-3422  	Jonctiune-4723  	364.80980144	110         	1.4943202734	0           	Open  	;
 Conducta-1294   	Jonctiune-2204  	Jonctiune-2736  	355.3916025 	100         	3.12332201  	0           	Open  	;
 Conducta-2955   	Jonctiune-2753  	255-A           	354.78879148	100         	4.8853883743	0           	Open  	;
 Conducta-2208   	Jonctiune-2197  	Jonctiune-3074  	311.75025671	100         	1.0974730253	0           	Open  	;
 Conducta-1270   	Jonctiune-2180  	Jonctiune-2181  	304.25464812	100         	1.2954013348	0           	Open  	;
 Conducta-1917   	Jonctiune-3466  	Jonctiune-2208  	298.07873926	110         	3.437410593 	0           	Open  	;
 Conducta-1296   	Jonctiune-J-16  	Jonctiune-2203  	249.37820754	100         	0.010384252295	0           	Open  	;
 Conducta-1271   	Jonctiune-J-23  	Jonctiune-2184  	243.50415366	100         	0.0014033137122	0           	Open  	;
 Conducta-2052   	Jonctiune-2753  	Jonctiune-2751  	239         	100         	0.86232793331	0           	Open  	;
 Conducta-703    	Jonctiune-1413  	Jonctiune-2196  	228.06597795	110         	4.8267807961	0           	Open  	;
 Conducta-1072   	Jonctiune-1877  	Jonctiune-1998  	223.50770566	100         	0.26329517365	0           	Open  	;
 Conducta-954    	Sensor1         	Jonctiune-1877  	209.3190064 	250         	4.5780673027	0           	Open  	;
 Conducta-1947   	Jonctiune-2756  	Jonctiune-2197  	190.64825126	110         	0.020717978477	0           	Open  	;
 Conducta-2721   	Jonctiune-2879  	Jonctiune-3471  	183.45991985	110         	4.8486704826	0           	Open  	;
 Conducta-705    	Jonctiune-2187  	Jonctiune-1421  	182.14533092	100         	0.0011199165601	0           	Open  	;
 Conducta-2194   	Jonctiune-4731  	Jonctiune-2196  	172.5025345 	100         	3.6899240017	0           	Open  	;
 Conducta-1284   	Sensor4         	Jonctiune-2197  	172.1035173 	100         	4.8905129433	0           	Open  	;
 Conducta-2722   	Jonctiune-3471  	Jonctiune-1413  	171.43901332	110         	0.084962464869	0           	Open  	;
 Conducta-2636   	Jonctiune-3446  	Jonctiune-3920  	192.4       	100         	4.5274224281	0           	Open  	;
 Conducta-1074   	Jonctiune-2176  	Jonctiune-J-23  	163.52691006	200         	4.1033039093	0           	Open  	;
 Conducta-11947  	Jonctiune-J-21  	Jonctiune-12588 	153.08791143	100         	0.44536912441	0           	Open  	;
 Conducta-582    	Jonctiune-1226  	Sensor4         	154.89700663	150         	4.5355167389	0           	Open  	;
 Conducta-1275   	Jonctiune-2188  	Jonctiune-2187  	146.4491474 	100         	3.6318135262	0           	Open  	;
 Conducta-827    	Jonctiune-1636  	Jonctiune-1641  	138.90802371	250         	4.9556570053	0           	Open  	;
 Conducta-2018   	Jonctiune-3967  	Jonctiune-2193  	131.90285794	100         	0.010815065354	0           	Open  	;
 Conducta-1070   	Jonctiune-1995  	Jonctiune-1996  	130.08884052	150         	0.92965233326	0           	Open  	;
 Conducta-825    	Jonctiune-1634  	Jonctiune-2737  	122.3096619 	250         	0.02355020307	0           	Open  	;
 Conducta-2612   	Jonctiune-1872  	Jonctiune-3464  	118.65712162	100         	3.3754267693	0           	Open  	;
 Conducta-837    	Jonctiune-J-19  	Jonctiune-2200  	94.71556052 	200         	1.4694377184	0           	Open  	;
 Conducta-1295   	Jonctiune-2206  	Jonctiune-2205  	92.183344445	150         	4.4899277687	0           	Open  	;
 Conducta-2206   	Jonctiune-2207  	Jonctiune-4618  	88.050309451	63          	4.5431451797	0           	Open  	;
 Conducta-1930   	Jonctiune-2736  	Jonctiune-2737  	86.772758777	200         	3.0687670708	0           	Open  	;
 Conducta-1280   	Jonctiune-2194  	Jonctiune-2195  	84.191246128	100         	4.0149874687	0           	Open  	;
 Conducta-1274   	Jonctiune-2177  	Jonctiune-1995  	84.575519918	150         	1.2430940866	0           	Open  	;
 Conducta-11961  	Jonctiune-2182  	Jonctiune-12372 	80.883962246	100         	4.8393602371	0           	Open  	;
 Conducta-1929   	Jonctiune-2205  	Jonctiune-2736  	80.835877174	200         	2.3327021599	0           	Open  	;
 Conducta-2017   	Jonctiune-2193  	Jonctiune-2187  	80.219990627	100         	0.0071304654703	0           	Open  	;
 Conducta-2719   	Sensor3         	Jonctiune-2879  	79.87409934 	110         	4.5203137398	0           	Open  	;
 Conducta-1941   	Jonctiune-3466  	Jonctiune-2753  	79.233269324	110         	4.1245675087	0           	Open  	;
 Conducta-3604   	Jonctiune-2735  	Jonctiune-1875  	78.595368109	200         	4.8934087753	0           	Open  	;
 Conducta-11960  	Jonctiune-12372 	Jonctiune-4731  	78.481227033	100         	2.615685463 	0           	Open  	;
 Conducta-1946   	Jonctiune-2756  	Jonctiune-3446  	78.789090849	110         	0.83745604753	0           	Open  	;
 Conducta-2198   	Jonctiune-2204  	Jonctiune-3068  	76.570814162	100         	1.0434788465	0           	Open  	;
 Conducta-1297   	Jonctiune-2200  	Jonctiune-J-16  	76.337020763	250         	3.4838302135	0           	Open  	;
 P-2             	Jonctiune-J-1   	Jonctiune-J-25  	2.0614594344	1000        	1.2905710936	0           	Open  	;
 P-3             	Jonctiune-2202  	Jonctiune-J-19  	253.23566555	65          	0.088158160448	0           	Open  	;
 P-4             	Jonctiune-J-19  	J-RN2           	9.7586140615	65          	0.0037265333813	0           	Open  	;
 P-5             	Jonctiune-J-16  	Jonctiune-12588 	191.74067606	100         	4.478785038 	0           	Open  	;
 P-7             	J-RN2           	Jonctiune-2730  	540.27442038	300         	0.051176562905	0           	Open  	;
 P-8             	Jonctiune-2730  	Jonctiune-2729  	202.45870419	300         	2.7887585163	0           	Open  	;
 P-RN2           	RaduNegru2      	J-RN2           	13.018734596	150         	0.0023601632565	0           	Closed	;
 P-RN1           	RaduNegru1      	J-RN1           	1.2187488487	1000        	0.45779848099	0           	CV    	;
 P-Apollo        	Apollo          	J-Apollo        	0.40105132543	1000        	0.75437110662	0           	CV    	;
 P-GA            	GA              	Jonctiune-J-3   	0.4         	1000        	0.7         	0           	CV    	;

[PUMPS]
;ID              	Node1           	Node2           	Parameters

[VALVES]
;ID              	Node1           	Node2           	Diameter    	Type	Setting     	MinorLoss   

[TAGS]

[DEMANDS]
;Junction        	Demand      	Pattern         	Category

[STATUS]
;ID              	Status/Setting

[PATTERNS]
;ID              	Multipliers
;
 SCADA           	0.750000    	0.460000    	0.330000    	0.310000    	0.300000    	0.270000    
 SCADA           	0.390000    	0.710000    	1.280000    	1.670000    	1.690000    	1.460000    
 SCADA           	1.330000    	1.110000    	1.150000    	1.050000    	0.890000    	0.970000    